@<TRIPOS>MOLECULE

59 62 1
SMALL
USER_CHARGES
@<TRIPOS>ATOM
1	Co1    -5.9583     0.8949     0.9557	Co	1	noname	1.4154
2	N1    -5.3729     2.7495     0.4438	N.2	1	noname	0.0863
3	N2    -4.7663     4.8464     0.6550	N.3	1	noname	-0.0158
4	C1    -5.6768     3.4297    -0.7124	C.2	1	noname	-0.0501
5	H1    -6.0757     3.0544    -1.4640	H	1	noname	0.0821
6	C2    -5.3120     4.7144    -0.5936	C.2	1	noname	-0.0971
7	H2    -5.4106     5.3833    -1.2328	H	1	noname	0.0806
8	C3    -4.8099     3.6438     1.2552	C.2	1	noname	-0.0913
9	C4    -4.3032     3.3646     2.6186	C.3	1	noname	0.0241
10	H3    -4.5357     2.4672     2.8698	H	1	noname	0.0307
11	H4    -4.6947     3.9821     3.2390	H	1	noname	0.0307
12	H5    -3.3473     3.4612     2.6308	H	1	noname	0.0307
13	C5    -4.2262     6.0890     1.2284	C.3	1	noname	-0.0085
14	H6    -4.5149     6.1621     2.1516	H	1	noname	0.0523
15	H7    -4.5918     6.8456     0.7436	H	1	noname	0.0523
16	C6    -2.7164     6.1565     1.1785	C.2	1	noname	-0.0487
17	C7    -2.0600     6.3167     0.0122	C.2	1	noname	-0.0586
18	H8    -2.5472     6.3744    -0.7773	H	1	noname	0.0626
19	C8    -0.6755     6.3947    -0.0410	C.2	1	noname	-0.0608
20	H9    -0.2596     6.5147    -0.8634	H	1	noname	0.0622
21	C9     0.0516     6.3062     1.0297	C.2	1	noname	-0.0677
22	H10     0.9795     6.3338     0.9662	H	1	noname	0.0622
23	C10    -0.5451     6.1720     2.2530	C.2	1	noname	-0.0608
24	H11    -0.0282     6.1289     3.0248	H	1	noname	0.0622
25	C11    -1.9598     6.1002     2.3346	C.2	1	noname	-0.0586
26	H12    -2.3764     6.0140     3.1617	H	1	noname	0.0626
27	N3    -3.8865    -2.1394     2.0916	N.2	1	noname	-0.1491
28	N4    -4.2808    -1.0576     2.0792	N.1	1	noname	-0.0514
29	N5    -4.6800     0.0137     2.1373	N.2	1	noname	0.1651
30	N6    -6.0659    -0.2156    -0.7174	N.2	1	noname	0.0863
31	N7    -6.4337    -1.9406    -2.0206	N.3	1	noname	-0.0158
32	C12    -5.2655    -0.1225    -1.8320	C.2	1	noname	-0.0501
33	H13    -4.6650     0.5668    -2.0027	H	1	noname	0.0821
34	C13    -5.4806    -1.1739    -2.6355	C.2	1	noname	-0.0971
35	H14    -5.0644    -1.3482    -3.4492	H	1	noname	0.0806
36	C14    -6.7731    -1.3343    -0.8691	C.2	1	noname	-0.0913
37	C15    -7.7863    -1.8439     0.0836	C.3	1	noname	0.0241
38	H15    -7.7820    -1.3021     0.8766	H	1	noname	0.0307
39	H16    -7.5809    -2.7514     0.3151	H	1	noname	0.0307
40	H17    -8.6558    -1.8060    -0.3233	H	1	noname	0.0307
41	C16    -6.9858    -3.2019    -2.5387	C.3	1	noname	-0.0085
42	H18    -7.0586    -3.8377    -1.8095	H	1	noname	0.0523
43	H19    -6.3713    -3.5708    -3.1924	H	1	noname	0.0523
44	C17    -8.3443    -3.0337    -3.1813	C.2	1	noname	-0.0487
45	C18    -8.4881    -2.3954    -4.3598	C.2	1	noname	-0.0586
46	H20    -7.7369    -2.0419    -4.7778	H	1	noname	0.0626
47	C19    -9.7288    -2.2495    -4.9638	C.2	1	noname	-0.0608
48	H21    -9.7863    -1.8112    -5.7813	H	1	noname	0.0622
49	C20   -10.8099    -2.7123    -4.4159	C.2	1	noname	-0.0677
50	H22   -11.6342    -2.5785    -4.8263	H	1	noname	0.0622
51	C21   -10.7390    -3.3970    -3.2340	C.2	1	noname	-0.0608
52	H23   -11.5089    -3.7481    -2.8484	H	1	noname	0.0622
53	C22    -9.4802    -3.5683    -2.6019	C.2	1	noname	-0.0586
54	H24    -9.4198    -4.0367    -1.8005	H	1	noname	0.0626
55	N8    -8.6747     2.9251     2.7693	N.2	1	noname	-0.1491
56	N9    -8.1699     2.0157     2.2754	N.1	1	noname	-0.0514
57	N10    -7.6882     1.0727     1.8402	N.2	1	noname	0.1651
58	H25    -4.1004     0.1391     2.9548	H	1	noname	0.1641
59	H26    -8.5115     0.5681     2.1365	H	1	noname	0.1641
@<TRIPOS>BOND
1	2	1	un
2	29	1	un
3	30	1	un
4	57	1	un
5	2	4	1
6	2	8	2
7	3	6	1
8	3	8	1
9	3	13	1
10	4	5	1
11	4	6	2
12	6	7	1
13	8	9	1
14	9	10	1
15	9	11	1
16	9	12	1
17	13	14	1
18	13	15	1
19	13	16	1
20	16	17	ar
21	16	25	ar
22	17	18	1
23	17	19	ar
24	19	20	1
25	19	21	ar
26	21	22	1
27	21	23	ar
28	23	24	1
29	23	25	ar
30	25	26	1
31	27	28	2
32	28	29	2
33	30	32	1
34	30	36	2
35	31	34	1
36	31	36	1
37	31	41	1
38	32	33	1
39	32	34	2
40	34	35	1
41	36	37	1
42	37	38	1
43	37	39	1
44	37	40	1
45	41	42	1
46	41	43	1
47	41	44	1
48	44	45	ar
49	44	53	ar
50	45	46	1
51	45	47	ar
52	47	48	1
53	47	49	ar
54	49	50	1
55	49	51	ar
56	51	52	1
57	51	53	ar
58	53	54	1
59	55	56	2
60	56	57	2
61	29	58	1
62	57	59	1
@<TRIPOS>SUBSTRUCTURE
1	noname	1
